

&MESH IJK=20,20,20, XB=-2,2,-2,2,0,2 /  

&TIME T_END=60. /  

&REAC FUEL='PROPANE', SOOT_YIELD=0.015 /

&SURF ID='BURNER', HRRPUA=#err# /

&VENT XB=-0.6,0.6,-0.6,0.6,0,0, COLOR='RED', SURF_ID='BURNER' /

&VENT MB='ZMAX',SURF_ID='OPEN'/
&VENT MB='YMIN',SURF_ID='OPEN'/
&VENT MB='YMAX',SURF_ID='OPEN'/
&VENT MB='XMIN',SURF_ID='OPEN'/
&VENT MB='XMAX',SURF_ID='OPEN'/

